Version 4
SHEET 1 1632 680
WIRE 1024 -64 960 -64
WIRE 1360 -64 1296 -64
WIRE 1408 -64 1360 -64
WIRE 960 -16 960 -64
WIRE 1296 16 1296 -64
WIRE 960 80 960 64
WIRE -96 112 -208 112
WIRE 80 112 -16 112
WIRE 144 112 80 112
WIRE 256 112 224 112
WIRE 384 112 256 112
WIRE 1296 144 1296 96
WIRE -208 160 -208 112
WIRE 80 176 80 112
WIRE 256 176 256 112
WIRE 384 176 384 112
WIRE 1008 176 960 176
WIRE 1024 176 1008 176
WIRE -80 208 -80 160
WIRE 960 208 960 176
WIRE -32 224 -32 160
WIRE -208 288 -208 240
WIRE 80 288 80 240
WIRE 256 288 256 240
WIRE 384 288 384 256
WIRE 960 304 960 288
FLAG 80 288 0
FLAG 256 288 0
FLAG 384 288 0
FLAG -208 288 0
FLAG 384 112 Uout
FLAG -80 208 0
FLAG -32 224 Upwm
FLAG 960 80 0
FLAG 1024 -64 Utri
FLAG 960 304 0
FLAG 1008 176 Ud
FLAG 1296 144 0
FLAG 1360 -64 Upwm
SYMBOL ind 128 128 R270
WINDOW 0 32 56 VTop 2
WINDOW 3 5 56 VBottom 2
SYMATTR InstName L1
SYMATTR Value {1.5*Lcrit}
SYMBOL cap 240 176 R0
SYMATTR InstName C1
SYMATTR Value 333µ
SYMBOL res 368 160 R0
SYMATTR InstName R1
SYMATTR Value {Rload}
SYMBOL voltage -208 144 R0
WINDOW 123 0 0 Left 0
WINDOW 39 0 0 Left 0
SYMATTR InstName V1
SYMATTR Value {Uin}
SYMBOL diode 96 240 R180
WINDOW 0 24 64 Left 2
WINDOW 3 24 0 Left 2
SYMATTR InstName D1
SYMBOL sw -112 112 R270
SYMATTR InstName S1
SYMATTR Value ""
SYMATTR SpiceModel SW01
SYMBOL voltage 960 -32 R0
WINDOW 3 -221 141 Left 2
WINDOW 123 0 0 Left 0
WINDOW 39 0 0 Left 0
SYMATTR Value PULSE(0 1 0 {Tsw} 0 0 {Tsw} 1e9)
SYMATTR InstName V3
SYMBOL bv 1296 0 R0
SYMATTR InstName B1
SYMATTR Value V={if(V(Ud)>V(Utri),5,0)}
SYMBOL voltage 960 192 R0
WINDOW 123 0 0 Left 0
WINDOW 39 0 0 Left 0
SYMATTR InstName V4
SYMATTR Value 0.5
TEXT 160 -72 Left 2 !.param fsw = 10k
TEXT 160 -24 Left 2 !.param D = 0.5
TEXT 160 -48 Left 2 !.param Tsw = 1/fsw
TEXT -760 312 Left 2 !.tran 50m
TEXT 56 -160 Left 2 !.Model SW01 SW(Ron=1m Roff=100Meg Vt=0.5)
TEXT 160 24 Left 2 !.param Lcrit = (1-D)*Rload/(2*fsw)
TEXT 160 0 Left 2 !.param Rload = 5
TEXT 576 -80 Left 2 !.param Uin = 10
