Version 4
SHEET 1 880 680
WIRE -400 -80 -416 -80
WIRE -336 -80 -400 -80
WIRE -256 -64 -288 -64
WIRE -416 -48 -416 -80
WIRE -288 -32 -288 -64
WIRE -336 -16 -336 -80
WIRE -336 32 -416 32
WIRE -416 64 -416 32
WIRE -288 80 -288 48
WIRE -256 80 -288 80
WIRE -96 112 -208 112
WIRE 80 112 -16 112
WIRE 144 112 80 112
WIRE 256 112 224 112
WIRE 384 112 256 112
WIRE -208 160 -208 112
WIRE 80 176 80 112
WIRE 256 176 256 112
WIRE 384 176 384 112
WIRE -80 208 -80 160
WIRE -32 224 -32 160
WIRE -208 288 -208 240
WIRE 80 288 80 240
WIRE 256 288 256 240
WIRE 384 288 384 256
FLAG 80 288 0
FLAG 256 288 0
FLAG 384 288 0
FLAG -208 288 0
FLAG -416 64 0
FLAG -256 -64 Ugate
FLAG -256 80 Usrc
FLAG -400 -80 Upwm
FLAG 384 112 Uout
FLAG -80 208 0
FLAG -32 224 Upwm
SYMBOL ind 128 128 R270
WINDOW 0 32 56 VTop 2
WINDOW 3 5 56 VBottom 2
SYMATTR InstName L1
SYMATTR Value {1.5*Lcrit}
SYMBOL cap 240 176 R0
SYMATTR InstName C1
SYMATTR Value 333µ
SYMBOL res 368 160 R0
SYMATTR InstName R1
SYMATTR Value {Rload}
SYMBOL voltage -208 144 R0
WINDOW 123 0 0 Left 0
WINDOW 39 0 0 Left 0
SYMATTR InstName V1
SYMATTR Value 10
SYMBOL voltage -416 -64 R0
WINDOW 3 -339 195 Left 2
WINDOW 123 0 0 Left 0
WINDOW 39 0 0 Left 0
SYMATTR Value PULSE(0 5 0 10n 10n {D*Tsw} {Tsw} 1e9)
SYMATTR InstName V2
SYMBOL e -288 -48 R0
SYMATTR InstName E1
SYMATTR Value 1
SYMBOL diode 96 240 R180
WINDOW 0 24 64 Left 2
WINDOW 3 24 0 Left 2
SYMATTR InstName D1
SYMBOL sw -112 112 R270
SYMATTR InstName S1
SYMATTR Value ""
SYMATTR SpiceModel SW01
TEXT 160 -72 Left 2 !.param fsw = 10k
TEXT 160 -24 Left 2 !.param D = 0.5
TEXT 160 -48 Left 2 !.param Tsw = 1/fsw
TEXT -760 312 Left 2 !.tran 50m
TEXT 56 -160 Left 2 !.Model SW01 SW(Ron=1m Roff=100Meg Vt=0.5)
TEXT 160 24 Left 2 !.param Lcrit = (1-D)*Rload/(2*fsw)
TEXT 160 0 Left 2 !.param Rload = 5
